*SPEF "ieee 1481-1999"
*DESIGN "Multiplier_STG"
*DATE "11:11:11 Fri 11 11, 1111"
*VENDOR "OpenRCX"
*PROGRAM "Parallel Extraction"
*VERSION "1.0"
*DESIGN_FLOW "NAME_SCOPE LOCAL" "PIN_CAP NONE"
*DIVIDER /
*DELIMITER :
*BUS_DELIMITER []
*T_UNIT 1 NS
*C_UNIT 1 PF
*R_UNIT 1 OHM
*L_UNIT 1 HENRY

*NAME_MAP
*1 Ready
*2 Start
*5 clock
*6 product[0]
*7 product[1]
*8 product[2]
*9 product[3]
*10 product[4]
*11 product[5]
*12 product[6]
*13 product[7]
*14 reset
*15 word1[0]
*16 word1[1]
*17 word1[2]
*18 word1[3]
*19 word2[0]
*20 word2[1]
*21 word2[2]
*22 word2[3]
*23 M0_Controller\.m0
*24 M0_Controller\.next_state\[0\]
*25 M0_Controller\.next_state\[1\]
*26 M0_Controller\.next_state\[2\]
*27 M0_Controller\.next_state\[3\]
*28 M0_Controller\.state\[0\]
*29 M0_Controller\.state\[1\]
*30 M0_Controller\.state\[2\]
*31 M0_Controller\.state\[3\]
*32 M1_Datapath\.multiplicand\[0\]
*33 M1_Datapath\.multiplicand\[1\]
*34 M1_Datapath\.multiplicand\[2\]
*35 M1_Datapath\.multiplicand\[3\]
*36 _000_
*37 _001_
*38 _002_
*39 _003_
*40 _004_
*41 _005_
*42 _006_
*43 _007_
*44 _008_
*45 _009_
*46 _010_
*47 _011_
*48 _012_
*49 _013_
*50 _014_
*51 _015_
*52 _016_
*53 _017_
*54 _018_
*55 _019_
*56 _020_
*57 _021_
*58 _022_
*59 _023_
*60 _024_
*61 _025_
*62 _026_
*63 _027_
*64 _028_
*65 _029_
*66 _030_
*67 _031_
*68 _032_
*69 _033_
*70 _034_
*71 _035_
*72 _036_
*73 _037_
*74 _038_
*75 _039_
*76 _040_
*77 _041_
*78 _042_
*79 _043_
*80 _044_
*81 _045_
*82 _046_
*83 _047_
*84 _048_
*85 _049_
*86 _050_
*87 _051_
*88 _052_
*89 _053_
*90 _054_
*91 _055_
*92 _056_
*93 _057_
*94 _058_
*95 _059_
*96 _060_
*97 _061_
*98 _062_
*99 _063_
*100 _064_
*101 _065_
*102 _066_
*103 _067_
*104 _068_
*105 _069_
*106 _070_
*107 _071_
*108 _072_
*109 _073_
*110 _074_
*111 _075_
*112 _076_
*113 _077_
*114 _078_
*115 _079_
*116 _080_
*117 clknet_0_clock
*118 clknet_1_0__leaf_clock
*119 clknet_1_1__leaf_clock
*120 net1
*121 net10
*122 net11
*123 net12
*124 net13
*125 net14
*126 net15
*127 net16
*128 net2
*129 net3
*130 net4
*131 net5
*132 net6
*133 net7
*134 net8
*135 net9
*136 FILLER_0_109
*137 FILLER_0_11
*138 FILLER_0_113
*139 FILLER_0_125
*140 FILLER_0_137
*141 FILLER_0_141
*142 FILLER_0_149
*143 FILLER_0_161
*144 FILLER_0_167
*145 FILLER_0_169
*146 FILLER_0_181
*147 FILLER_0_193
*148 FILLER_0_197
*149 FILLER_0_205
*150 FILLER_0_210
*151 FILLER_0_222
*152 FILLER_0_225
*153 FILLER_0_23
*154 FILLER_0_237
*155 FILLER_0_249
*156 FILLER_0_253
*157 FILLER_0_265
*158 FILLER_0_27
*159 FILLER_0_277
*160 FILLER_0_281
*161 FILLER_0_289
*162 FILLER_0_29
*163 FILLER_0_3
*164 FILLER_0_301
*165 FILLER_0_307
*166 FILLER_0_309
*167 FILLER_0_321
*168 FILLER_0_333
*169 FILLER_0_337
*170 FILLER_0_349
*171 FILLER_0_357
*172 FILLER_0_363
*173 FILLER_0_365
*174 FILLER_0_377
*175 FILLER_0_389
*176 FILLER_0_393
*177 FILLER_0_403
*178 FILLER_0_41
*179 FILLER_0_53
*180 FILLER_0_57
*181 FILLER_0_64
*182 FILLER_0_76
*183 FILLER_0_85
*184 FILLER_0_97
*185 FILLER_10_109
*186 FILLER_10_121
*187 FILLER_10_133
*188 FILLER_10_139
*189 FILLER_10_141
*190 FILLER_10_15
*191 FILLER_10_153
*192 FILLER_10_165
*193 FILLER_10_177
*194 FILLER_10_189
*195 FILLER_10_195
*196 FILLER_10_197
*197 FILLER_10_209
*198 FILLER_10_221
*199 FILLER_10_233
*200 FILLER_10_245
*201 FILLER_10_251
*202 FILLER_10_253
*203 FILLER_10_265
*204 FILLER_10_27
*205 FILLER_10_277
*206 FILLER_10_289
*207 FILLER_10_29
*208 FILLER_10_3
*209 FILLER_10_301
*210 FILLER_10_307
*211 FILLER_10_309
*212 FILLER_10_321
*213 FILLER_10_333
*214 FILLER_10_345
*215 FILLER_10_357
*216 FILLER_10_363
*217 FILLER_10_365
*218 FILLER_10_377
*219 FILLER_10_389
*220 FILLER_10_401
*221 FILLER_10_41
*222 FILLER_10_53
*223 FILLER_10_65
*224 FILLER_10_77
*225 FILLER_10_83
*226 FILLER_10_85
*227 FILLER_10_97
*228 FILLER_11_105
*229 FILLER_11_111
*230 FILLER_11_113
*231 FILLER_11_125
*232 FILLER_11_137
*233 FILLER_11_149
*234 FILLER_11_15
*235 FILLER_11_161
*236 FILLER_11_167
*237 FILLER_11_169
*238 FILLER_11_181
*239 FILLER_11_193
*240 FILLER_11_205
*241 FILLER_11_217
*242 FILLER_11_223
*243 FILLER_11_225
*244 FILLER_11_237
*245 FILLER_11_249
*246 FILLER_11_261
*247 FILLER_11_27
*248 FILLER_11_273
*249 FILLER_11_279
*250 FILLER_11_281
*251 FILLER_11_293
*252 FILLER_11_3
*253 FILLER_11_305
*254 FILLER_11_317
*255 FILLER_11_329
*256 FILLER_11_335
*257 FILLER_11_337
*258 FILLER_11_349
*259 FILLER_11_361
*260 FILLER_11_373
*261 FILLER_11_385
*262 FILLER_11_39
*263 FILLER_11_391
*264 FILLER_11_393
*265 FILLER_11_405
*266 FILLER_11_51
*267 FILLER_11_55
*268 FILLER_11_57
*269 FILLER_11_69
*270 FILLER_11_81
*271 FILLER_11_93
*272 FILLER_12_109
*273 FILLER_12_121
*274 FILLER_12_133
*275 FILLER_12_139
*276 FILLER_12_141
*277 FILLER_12_15
*278 FILLER_12_153
*279 FILLER_12_165
*280 FILLER_12_177
*281 FILLER_12_189
*282 FILLER_12_195
*283 FILLER_12_197
*284 FILLER_12_209
*285 FILLER_12_221
*286 FILLER_12_233
*287 FILLER_12_245
*288 FILLER_12_251
*289 FILLER_12_253
*290 FILLER_12_265
*291 FILLER_12_27
*292 FILLER_12_277
*293 FILLER_12_289
*294 FILLER_12_29
*295 FILLER_12_3
*296 FILLER_12_301
*297 FILLER_12_307
*298 FILLER_12_309
*299 FILLER_12_321
*300 FILLER_12_333
*301 FILLER_12_345
*302 FILLER_12_357
*303 FILLER_12_363
*304 FILLER_12_365
*305 FILLER_12_377
*306 FILLER_12_389
*307 FILLER_12_401
*308 FILLER_12_41
*309 FILLER_12_53
*310 FILLER_12_65
*311 FILLER_12_77
*312 FILLER_12_83
*313 FILLER_12_85
*314 FILLER_12_97
*315 FILLER_13_105
*316 FILLER_13_111
*317 FILLER_13_113
*318 FILLER_13_125
*319 FILLER_13_137
*320 FILLER_13_149
*321 FILLER_13_15
*322 FILLER_13_161
*323 FILLER_13_167
*324 FILLER_13_169
*325 FILLER_13_181
*326 FILLER_13_193
*327 FILLER_13_205
*328 FILLER_13_217
*329 FILLER_13_223
*330 FILLER_13_225
*331 FILLER_13_237
*332 FILLER_13_249
*333 FILLER_13_261
*334 FILLER_13_27
*335 FILLER_13_273
*336 FILLER_13_279
*337 FILLER_13_281
*338 FILLER_13_293
*339 FILLER_13_3
*340 FILLER_13_305
*341 FILLER_13_317
*342 FILLER_13_329
*343 FILLER_13_335
*344 FILLER_13_337
*345 FILLER_13_349
*346 FILLER_13_361
*347 FILLER_13_373
*348 FILLER_13_385
*349 FILLER_13_39
*350 FILLER_13_391
*351 FILLER_13_393
*352 FILLER_13_405
*353 FILLER_13_51
*354 FILLER_13_55
*355 FILLER_13_57
*356 FILLER_13_69
*357 FILLER_13_81
*358 FILLER_13_93
*359 FILLER_14_109
*360 FILLER_14_121
*361 FILLER_14_133
*362 FILLER_14_139
*363 FILLER_14_141
*364 FILLER_14_153
*365 FILLER_14_165
*366 FILLER_14_177
*367 FILLER_14_18
*368 FILLER_14_189
*369 FILLER_14_195
*370 FILLER_14_197
*371 FILLER_14_209
*372 FILLER_14_221
*373 FILLER_14_233
*374 FILLER_14_245
*375 FILLER_14_251
*376 FILLER_14_253
*377 FILLER_14_26
*378 FILLER_14_265
*379 FILLER_14_277
*380 FILLER_14_289
*381 FILLER_14_29
*382 FILLER_14_301
*383 FILLER_14_307
*384 FILLER_14_309
*385 FILLER_14_321
*386 FILLER_14_333
*387 FILLER_14_345
*388 FILLER_14_357
*389 FILLER_14_363
*390 FILLER_14_365
*391 FILLER_14_377
*392 FILLER_14_389
*393 FILLER_14_401
*394 FILLER_14_41
*395 FILLER_14_53
*396 FILLER_14_6
*397 FILLER_14_65
*398 FILLER_14_77
*399 FILLER_14_83
*400 FILLER_14_85
*401 FILLER_14_97
*402 FILLER_15_105
*403 FILLER_15_111
*404 FILLER_15_113
*405 FILLER_15_125
*406 FILLER_15_137
*407 FILLER_15_149
*408 FILLER_15_15
*409 FILLER_15_161
*410 FILLER_15_167
*411 FILLER_15_169
*412 FILLER_15_181
*413 FILLER_15_193
*414 FILLER_15_205
*415 FILLER_15_217
*416 FILLER_15_223
*417 FILLER_15_225
*418 FILLER_15_237
*419 FILLER_15_249
*420 FILLER_15_261
*421 FILLER_15_27
*422 FILLER_15_273
*423 FILLER_15_279
*424 FILLER_15_281
*425 FILLER_15_293
*426 FILLER_15_3
*427 FILLER_15_305
*428 FILLER_15_317
*429 FILLER_15_329
*430 FILLER_15_335
*431 FILLER_15_337
*432 FILLER_15_349
*433 FILLER_15_361
*434 FILLER_15_373
*435 FILLER_15_385
*436 FILLER_15_39
*437 FILLER_15_391
*438 FILLER_15_393
*439 FILLER_15_405
*440 FILLER_15_51
*441 FILLER_15_55
*442 FILLER_15_57
*443 FILLER_15_69
*444 FILLER_15_81
*445 FILLER_15_93
*446 FILLER_16_109
*447 FILLER_16_121
*448 FILLER_16_133
*449 FILLER_16_139
*450 FILLER_16_141
*451 FILLER_16_15
*452 FILLER_16_153
*453 FILLER_16_165
*454 FILLER_16_177
*455 FILLER_16_189
*456 FILLER_16_195
*457 FILLER_16_197
*458 FILLER_16_209
*459 FILLER_16_221
*460 FILLER_16_233
*461 FILLER_16_245
*462 FILLER_16_251
*463 FILLER_16_253
*464 FILLER_16_265
*465 FILLER_16_27
*466 FILLER_16_277
*467 FILLER_16_289
*468 FILLER_16_29
*469 FILLER_16_3
*470 FILLER_16_301
*471 FILLER_16_307
*472 FILLER_16_309
*473 FILLER_16_321
*474 FILLER_16_333
*475 FILLER_16_345
*476 FILLER_16_357
*477 FILLER_16_363
*478 FILLER_16_365
*479 FILLER_16_377
*480 FILLER_16_389
*481 FILLER_16_401
*482 FILLER_16_41
*483 FILLER_16_53
*484 FILLER_16_65
*485 FILLER_16_77
*486 FILLER_16_83
*487 FILLER_16_85
*488 FILLER_16_97
*489 FILLER_17_105
*490 FILLER_17_111
*491 FILLER_17_113
*492 FILLER_17_125
*493 FILLER_17_137
*494 FILLER_17_149
*495 FILLER_17_15
*496 FILLER_17_161
*497 FILLER_17_167
*498 FILLER_17_169
*499 FILLER_17_181
*500 FILLER_17_193
*501 FILLER_17_205
*502 FILLER_17_217
*503 FILLER_17_223
*504 FILLER_17_225
*505 FILLER_17_237
*506 FILLER_17_249
*507 FILLER_17_261
*508 FILLER_17_27
*509 FILLER_17_273
*510 FILLER_17_279
*511 FILLER_17_281
*512 FILLER_17_293
*513 FILLER_17_3
*514 FILLER_17_305
*515 FILLER_17_317
*516 FILLER_17_329
*517 FILLER_17_335
*518 FILLER_17_337
*519 FILLER_17_349
*520 FILLER_17_361
*521 FILLER_17_373
*522 FILLER_17_385
*523 FILLER_17_39
*524 FILLER_17_391
*525 FILLER_17_393
*526 FILLER_17_405
*527 FILLER_17_51
*528 FILLER_17_55
*529 FILLER_17_57
*530 FILLER_17_69
*531 FILLER_17_81
*532 FILLER_17_93
*533 FILLER_18_109
*534 FILLER_18_121
*535 FILLER_18_133
*536 FILLER_18_139
*537 FILLER_18_141
*538 FILLER_18_15
*539 FILLER_18_153
*540 FILLER_18_165
*541 FILLER_18_177
*542 FILLER_18_189
*543 FILLER_18_195
*544 FILLER_18_197
*545 FILLER_18_209
*546 FILLER_18_221
*547 FILLER_18_233
*548 FILLER_18_245
*549 FILLER_18_251
*550 FILLER_18_253
*551 FILLER_18_265
*552 FILLER_18_27
*553 FILLER_18_277
*554 FILLER_18_289
*555 FILLER_18_29
*556 FILLER_18_3
*557 FILLER_18_301
*558 FILLER_18_307
*559 FILLER_18_309
*560 FILLER_18_321
*561 FILLER_18_333
*562 FILLER_18_345
*563 FILLER_18_357
*564 FILLER_18_363
*565 FILLER_18_365
*566 FILLER_18_377
*567 FILLER_18_389
*568 FILLER_18_401
*569 FILLER_18_41
*570 FILLER_18_53
*571 FILLER_18_65
*572 FILLER_18_77
*573 FILLER_18_83
*574 FILLER_18_85
*575 FILLER_18_97
*576 FILLER_19_105
*577 FILLER_19_111
*578 FILLER_19_113
*579 FILLER_19_125
*580 FILLER_19_137
*581 FILLER_19_149
*582 FILLER_19_15
*583 FILLER_19_161
*584 FILLER_19_167
*585 FILLER_19_169
*586 FILLER_19_181
*587 FILLER_19_193
*588 FILLER_19_205
*589 FILLER_19_217
*590 FILLER_19_223
*591 FILLER_19_225
*592 FILLER_19_237
*593 FILLER_19_249
*594 FILLER_19_261
*595 FILLER_19_27
*596 FILLER_19_273
*597 FILLER_19_279
*598 FILLER_19_281
*599 FILLER_19_293
*600 FILLER_19_3
*601 FILLER_19_305
*602 FILLER_19_317
*603 FILLER_19_329
*604 FILLER_19_335
*605 FILLER_19_337
*606 FILLER_19_349
*607 FILLER_19_361
*608 FILLER_19_373
*609 FILLER_19_385
*610 FILLER_19_39
*611 FILLER_19_391
*612 FILLER_19_393
*613 FILLER_19_405
*614 FILLER_19_51
*615 FILLER_19_55
*616 FILLER_19_57
*617 FILLER_19_69
*618 FILLER_19_81
*619 FILLER_19_93
*620 FILLER_1_105
*621 FILLER_1_111
*622 FILLER_1_113
*623 FILLER_1_125
*624 FILLER_1_137
*625 FILLER_1_149
*626 FILLER_1_15
*627 FILLER_1_161
*628 FILLER_1_167
*629 FILLER_1_169
*630 FILLER_1_181
*631 FILLER_1_185
*632 FILLER_1_189
*633 FILLER_1_201
*634 FILLER_1_213
*635 FILLER_1_221
*636 FILLER_1_225
*637 FILLER_1_237
*638 FILLER_1_249
*639 FILLER_1_261
*640 FILLER_1_27
*641 FILLER_1_273
*642 FILLER_1_279
*643 FILLER_1_281
*644 FILLER_1_293
*645 FILLER_1_3
*646 FILLER_1_305
*647 FILLER_1_317
*648 FILLER_1_329
*649 FILLER_1_335
*650 FILLER_1_337
*651 FILLER_1_349
*652 FILLER_1_361
*653 FILLER_1_373
*654 FILLER_1_385
*655 FILLER_1_39
*656 FILLER_1_391
*657 FILLER_1_393
*658 FILLER_1_405
*659 FILLER_1_51
*660 FILLER_1_55
*661 FILLER_1_57
*662 FILLER_1_69
*663 FILLER_1_81
*664 FILLER_1_93
*665 FILLER_20_109
*666 FILLER_20_121
*667 FILLER_20_133
*668 FILLER_20_139
*669 FILLER_20_141
*670 FILLER_20_15
*671 FILLER_20_153
*672 FILLER_20_165
*673 FILLER_20_177
*674 FILLER_20_189
*675 FILLER_20_195
*676 FILLER_20_197
*677 FILLER_20_209
*678 FILLER_20_221
*679 FILLER_20_233
*680 FILLER_20_245
*681 FILLER_20_251
*682 FILLER_20_253
*683 FILLER_20_265
*684 FILLER_20_27
*685 FILLER_20_277
*686 FILLER_20_289
*687 FILLER_20_29
*688 FILLER_20_3
*689 FILLER_20_301
*690 FILLER_20_307
*691 FILLER_20_309
*692 FILLER_20_321
*693 FILLER_20_333
*694 FILLER_20_345
*695 FILLER_20_357
*696 FILLER_20_363
*697 FILLER_20_365
*698 FILLER_20_377
*699 FILLER_20_389
*700 FILLER_20_401
*701 FILLER_20_41
*702 FILLER_20_53
*703 FILLER_20_65
*704 FILLER_20_77
*705 FILLER_20_83
*706 FILLER_20_85
*707 FILLER_20_97
*708 FILLER_21_105
*709 FILLER_21_111
*710 FILLER_21_113
*711 FILLER_21_125
*712 FILLER_21_137
*713 FILLER_21_149
*714 FILLER_21_15
*715 FILLER_21_161
*716 FILLER_21_167
*717 FILLER_21_169
*718 FILLER_21_181
*719 FILLER_21_193
*720 FILLER_21_205
*721 FILLER_21_217
*722 FILLER_21_223
*723 FILLER_21_225
*724 FILLER_21_237
*725 FILLER_21_249
*726 FILLER_21_261
*727 FILLER_21_27
*728 FILLER_21_273
*729 FILLER_21_279
*730 FILLER_21_281
*731 FILLER_21_293
*732 FILLER_21_3
*733 FILLER_21_305
*734 FILLER_21_317
*735 FILLER_21_329
*736 FILLER_21_335
*737 FILLER_21_337
*738 FILLER_21_349
*739 FILLER_21_361
*740 FILLER_21_373
*741 FILLER_21_385
*742 FILLER_21_39
*743 FILLER_21_391
*744 FILLER_21_393
*745 FILLER_21_405
*746 FILLER_21_51
*747 FILLER_21_55
*748 FILLER_21_57
*749 FILLER_21_69
*750 FILLER_21_81
*751 FILLER_21_93
*752 FILLER_22_109
*753 FILLER_22_121
*754 FILLER_22_133
*755 FILLER_22_139
*756 FILLER_22_141
*757 FILLER_22_15
*758 FILLER_22_153
*759 FILLER_22_165
*760 FILLER_22_177
*761 FILLER_22_189
*762 FILLER_22_195
*763 FILLER_22_197
*764 FILLER_22_209
*765 FILLER_22_221
*766 FILLER_22_233
*767 FILLER_22_237
*768 FILLER_22_249
*769 FILLER_22_256
*770 FILLER_22_268
*771 FILLER_22_27
*772 FILLER_22_280
*773 FILLER_22_29
*774 FILLER_22_292
*775 FILLER_22_3
*776 FILLER_22_304
*777 FILLER_22_309
*778 FILLER_22_321
*779 FILLER_22_333
*780 FILLER_22_345
*781 FILLER_22_357
*782 FILLER_22_363
*783 FILLER_22_365
*784 FILLER_22_377
*785 FILLER_22_389
*786 FILLER_22_401
*787 FILLER_22_41
*788 FILLER_22_53
*789 FILLER_22_65
*790 FILLER_22_77
*791 FILLER_22_83
*792 FILLER_22_85
*793 FILLER_22_97
*794 FILLER_23_105
*795 FILLER_23_111
*796 FILLER_23_113
*797 FILLER_23_125
*798 FILLER_23_137
*799 FILLER_23_149
*800 FILLER_23_15
*801 FILLER_23_161
*802 FILLER_23_167
*803 FILLER_23_169
*804 FILLER_23_181
*805 FILLER_23_193
*806 FILLER_23_208
*807 FILLER_23_212
*808 FILLER_23_220
*809 FILLER_23_225
*810 FILLER_23_233
*811 FILLER_23_261
*812 FILLER_23_267
*813 FILLER_23_27
*814 FILLER_23_271
*815 FILLER_23_279
*816 FILLER_23_281
*817 FILLER_23_293
*818 FILLER_23_3
*819 FILLER_23_305
*820 FILLER_23_317
*821 FILLER_23_329
*822 FILLER_23_335
*823 FILLER_23_337
*824 FILLER_23_349
*825 FILLER_23_361
*826 FILLER_23_373
*827 FILLER_23_385
*828 FILLER_23_39
*829 FILLER_23_391
*830 FILLER_23_393
*831 FILLER_23_405
*832 FILLER_23_51
*833 FILLER_23_55
*834 FILLER_23_57
*835 FILLER_23_69
*836 FILLER_23_81
*837 FILLER_23_93
*838 FILLER_24_109
*839 FILLER_24_121
*840 FILLER_24_133
*841 FILLER_24_139
*842 FILLER_24_141
*843 FILLER_24_15
*844 FILLER_24_153
*845 FILLER_24_165
*846 FILLER_24_177
*847 FILLER_24_189
*848 FILLER_24_195
*849 FILLER_24_200
*850 FILLER_24_224
*851 FILLER_24_248
*852 FILLER_24_253
*853 FILLER_24_258
*854 FILLER_24_27
*855 FILLER_24_270
*856 FILLER_24_278
*857 FILLER_24_285
*858 FILLER_24_29
*859 FILLER_24_297
*860 FILLER_24_3
*861 FILLER_24_305
*862 FILLER_24_309
*863 FILLER_24_321
*864 FILLER_24_333
*865 FILLER_24_345
*866 FILLER_24_357
*867 FILLER_24_363
*868 FILLER_24_365
*869 FILLER_24_377
*870 FILLER_24_389
*871 FILLER_24_401
*872 FILLER_24_41
*873 FILLER_24_53
*874 FILLER_24_65
*875 FILLER_24_77
*876 FILLER_24_83
*877 FILLER_24_85
*878 FILLER_24_97
*879 FILLER_25_105
*880 FILLER_25_111
*881 FILLER_25_113
*882 FILLER_25_125
*883 FILLER_25_137
*884 FILLER_25_149
*885 FILLER_25_15
*886 FILLER_25_161
*887 FILLER_25_167
*888 FILLER_25_169
*889 FILLER_25_181
*890 FILLER_25_204
*891 FILLER_25_218
*892 FILLER_25_225
*893 FILLER_25_232
*894 FILLER_25_240
*895 FILLER_25_262
*896 FILLER_25_266
*897 FILLER_25_27
*898 FILLER_25_276
*899 FILLER_25_3
*900 FILLER_25_301
*901 FILLER_25_313
*902 FILLER_25_325
*903 FILLER_25_333
*904 FILLER_25_337
*905 FILLER_25_349
*906 FILLER_25_361
*907 FILLER_25_373
*908 FILLER_25_385
*909 FILLER_25_39
*910 FILLER_25_391
*911 FILLER_25_393
*912 FILLER_25_405
*913 FILLER_25_51
*914 FILLER_25_55
*915 FILLER_25_57
*916 FILLER_25_69
*917 FILLER_25_81
*918 FILLER_25_93
*919 FILLER_26_109
*920 FILLER_26_121
*921 FILLER_26_133
*922 FILLER_26_139
*923 FILLER_26_141
*924 FILLER_26_15
*925 FILLER_26_153
*926 FILLER_26_165
*927 FILLER_26_177
*928 FILLER_26_189
*929 FILLER_26_195
*930 FILLER_26_207
*931 FILLER_26_217
*932 FILLER_26_226
*933 FILLER_26_234
*934 FILLER_26_239
*935 FILLER_26_248
*936 FILLER_26_256
*937 FILLER_26_260
*938 FILLER_26_269
*939 FILLER_26_27
*940 FILLER_26_280
*941 FILLER_26_287
*942 FILLER_26_29
*943 FILLER_26_294
*944 FILLER_26_3
*945 FILLER_26_306
*946 FILLER_26_309
*947 FILLER_26_321
*948 FILLER_26_333
*949 FILLER_26_345
*950 FILLER_26_357
*951 FILLER_26_363
*952 FILLER_26_365
*953 FILLER_26_377
*954 FILLER_26_389
*955 FILLER_26_401
*956 FILLER_26_41
*957 FILLER_26_53
*958 FILLER_26_65
*959 FILLER_26_77
*960 FILLER_26_83
*961 FILLER_26_85
*962 FILLER_26_97
*963 FILLER_27_105
*964 FILLER_27_111
*965 FILLER_27_113
*966 FILLER_27_125
*967 FILLER_27_137
*968 FILLER_27_149
*969 FILLER_27_15
*970 FILLER_27_161
*971 FILLER_27_167
*972 FILLER_27_169
*973 FILLER_27_181
*974 FILLER_27_185
*975 FILLER_27_206
*976 FILLER_27_210
*977 FILLER_27_216
*978 FILLER_27_230
*979 FILLER_27_236
*980 FILLER_27_257
*981 FILLER_27_27
*982 FILLER_27_271
*983 FILLER_27_279
*984 FILLER_27_284
*985 FILLER_27_296
*986 FILLER_27_3
*987 FILLER_27_308
*988 FILLER_27_320
*989 FILLER_27_332
*990 FILLER_27_337
*991 FILLER_27_349
*992 FILLER_27_361
*993 FILLER_27_373
*994 FILLER_27_385
*995 FILLER_27_39
*996 FILLER_27_391
*997 FILLER_27_393
*998 FILLER_27_405
*999 FILLER_27_51
*1000 FILLER_27_55
*1001 FILLER_27_57
*1002 FILLER_27_69
*1003 FILLER_27_81
*1004 FILLER_27_93
*1005 FILLER_28_109
*1006 FILLER_28_121
*1007 FILLER_28_133
*1008 FILLER_28_139
*1009 FILLER_28_141
*1010 FILLER_28_15
*1011 FILLER_28_153
*1012 FILLER_28_165
*1013 FILLER_28_177
*1014 FILLER_28_192
*1015 FILLER_28_200
*1016 FILLER_28_210
*1017 FILLER_28_217
*1018 FILLER_28_242
*1019 FILLER_28_250
*1020 FILLER_28_258
*1021 FILLER_28_262
*1022 FILLER_28_27
*1023 FILLER_28_283
*1024 FILLER_28_29
*1025 FILLER_28_293
*1026 FILLER_28_3
*1027 FILLER_28_305
*1028 FILLER_28_309
*1029 FILLER_28_321
*1030 FILLER_28_333
*1031 FILLER_28_345
*1032 FILLER_28_357
*1033 FILLER_28_363
*1034 FILLER_28_365
*1035 FILLER_28_377
*1036 FILLER_28_389
*1037 FILLER_28_401
*1038 FILLER_28_41
*1039 FILLER_28_53
*1040 FILLER_28_65
*1041 FILLER_28_77
*1042 FILLER_28_83
*1043 FILLER_28_85
*1044 FILLER_28_97
*1045 FILLER_29_105
*1046 FILLER_29_111
*1047 FILLER_29_113
*1048 FILLER_29_125
*1049 FILLER_29_137
*1050 FILLER_29_149
*1051 FILLER_29_15
*1052 FILLER_29_161
*1053 FILLER_29_167
*1054 FILLER_29_169
*1055 FILLER_29_177
*1056 FILLER_29_201
*1057 FILLER_29_213
*1058 FILLER_29_220
*1059 FILLER_29_225
*1060 FILLER_29_235
*1061 FILLER_29_239
*1062 FILLER_29_260
*1063 FILLER_29_266
*1064 FILLER_29_27
*1065 FILLER_29_274
*1066 FILLER_29_281
*1067 FILLER_29_288
*1068 FILLER_29_3
*1069 FILLER_29_300
*1070 FILLER_29_312
*1071 FILLER_29_324
*1072 FILLER_29_337
*1073 FILLER_29_349
*1074 FILLER_29_361
*1075 FILLER_29_373
*1076 FILLER_29_385
*1077 FILLER_29_39
*1078 FILLER_29_391
*1079 FILLER_29_393
*1080 FILLER_29_405
*1081 FILLER_29_51
*1082 FILLER_29_55
*1083 FILLER_29_57
*1084 FILLER_29_69
*1085 FILLER_29_81
*1086 FILLER_29_93
*1087 FILLER_2_109
*1088 FILLER_2_121
*1089 FILLER_2_133
*1090 FILLER_2_139
*1091 FILLER_2_141
*1092 FILLER_2_15
*1093 FILLER_2_153
*1094 FILLER_2_165
*1095 FILLER_2_177
*1096 FILLER_2_189
*1097 FILLER_2_195
*1098 FILLER_2_197
*1099 FILLER_2_209
*1100 FILLER_2_221
*1101 FILLER_2_233
*1102 FILLER_2_245
*1103 FILLER_2_251
*1104 FILLER_2_253
*1105 FILLER_2_265
*1106 FILLER_2_27
*1107 FILLER_2_277
*1108 FILLER_2_289
*1109 FILLER_2_29
*1110 FILLER_2_3
*1111 FILLER_2_301
*1112 FILLER_2_307
*1113 FILLER_2_309
*1114 FILLER_2_321
*1115 FILLER_2_333
*1116 FILLER_2_345
*1117 FILLER_2_357
*1118 FILLER_2_363
*1119 FILLER_2_365
*1120 FILLER_2_377
*1121 FILLER_2_389
*1122 FILLER_2_401
*1123 FILLER_2_41
*1124 FILLER_2_53
*1125 FILLER_2_65
*1126 FILLER_2_77
*1127 FILLER_2_83
*1128 FILLER_2_85
*1129 FILLER_2_97
*1130 FILLER_30_109
*1131 FILLER_30_121
*1132 FILLER_30_133
*1133 FILLER_30_139
*1134 FILLER_30_141
*1135 FILLER_30_15
*1136 FILLER_30_153
*1137 FILLER_30_165
*1138 FILLER_30_173
*1139 FILLER_30_178
*1140 FILLER_30_185
*1141 FILLER_30_192
*1142 FILLER_30_197
*1143 FILLER_30_205
*1144 FILLER_30_209
*1145 FILLER_30_213
*1146 FILLER_30_227
*1147 FILLER_30_245
*1148 FILLER_30_251
*1149 FILLER_30_260
*1150 FILLER_30_269
*1151 FILLER_30_27
*1152 FILLER_30_276
*1153 FILLER_30_288
*1154 FILLER_30_29
*1155 FILLER_30_3
*1156 FILLER_30_300
*1157 FILLER_30_309
*1158 FILLER_30_321
*1159 FILLER_30_333
*1160 FILLER_30_345
*1161 FILLER_30_357
*1162 FILLER_30_363
*1163 FILLER_30_365
*1164 FILLER_30_377
*1165 FILLER_30_389
*1166 FILLER_30_397
*1167 FILLER_30_402
*1168 FILLER_30_406
*1169 FILLER_30_41
*1170 FILLER_30_53
*1171 FILLER_30_65
*1172 FILLER_30_77
*1173 FILLER_30_83
*1174 FILLER_30_85
*1175 FILLER_30_97
*1176 FILLER_31_105
*1177 FILLER_31_111
*1178 FILLER_31_113
*1179 FILLER_31_125
*1180 FILLER_31_137
*1181 FILLER_31_149
*1182 FILLER_31_15
*1183 FILLER_31_161
*1184 FILLER_31_167
*1185 FILLER_31_169
*1186 FILLER_31_175
*1187 FILLER_31_199
*1188 FILLER_31_211
*1189 FILLER_31_220
*1190 FILLER_31_233
*1191 FILLER_31_239
*1192 FILLER_31_260
*1193 FILLER_31_27
*1194 FILLER_31_271
*1195 FILLER_31_279
*1196 FILLER_31_281
*1197 FILLER_31_293
*1198 FILLER_31_3
*1199 FILLER_31_305
*1200 FILLER_31_317
*1201 FILLER_31_329
*1202 FILLER_31_335
*1203 FILLER_31_337
*1204 FILLER_31_349
*1205 FILLER_31_361
*1206 FILLER_31_373
*1207 FILLER_31_385
*1208 FILLER_31_39
*1209 FILLER_31_391
*1210 FILLER_31_393
*1211 FILLER_31_405
*1212 FILLER_31_51
*1213 FILLER_31_55
*1214 FILLER_31_57
*1215 FILLER_31_69
*1216 FILLER_31_81
*1217 FILLER_31_93
*1218 FILLER_32_109
*1219 FILLER_32_121
*1220 FILLER_32_133
*1221 FILLER_32_139
*1222 FILLER_32_141
*1223 FILLER_32_153
*1224 FILLER_32_165
*1225 FILLER_32_177
*1226 FILLER_32_18
*1227 FILLER_32_181
*1228 FILLER_32_185
*1229 FILLER_32_192
*1230 FILLER_32_205
*1231 FILLER_32_216
*1232 FILLER_32_240
*1233 FILLER_32_248
*1234 FILLER_32_253
*1235 FILLER_32_257
*1236 FILLER_32_26
*1237 FILLER_32_281
*1238 FILLER_32_29
*1239 FILLER_32_293
*1240 FILLER_32_305
*1241 FILLER_32_309
*1242 FILLER_32_321
*1243 FILLER_32_333
*1244 FILLER_32_345
*1245 FILLER_32_357
*1246 FILLER_32_363
*1247 FILLER_32_365
*1248 FILLER_32_377
*1249 FILLER_32_389
*1250 FILLER_32_401
*1251 FILLER_32_41
*1252 FILLER_32_53
*1253 FILLER_32_6
*1254 FILLER_32_65
*1255 FILLER_32_77
*1256 FILLER_32_83
*1257 FILLER_32_85
*1258 FILLER_32_97
*1259 FILLER_33_105
*1260 FILLER_33_111
*1261 FILLER_33_113
*1262 FILLER_33_125
*1263 FILLER_33_137
*1264 FILLER_33_149
*1265 FILLER_33_15
*1266 FILLER_33_161
*1267 FILLER_33_167
*1268 FILLER_33_169
*1269 FILLER_33_181
*1270 FILLER_33_205
*1271 FILLER_33_214
*1272 FILLER_33_222
*1273 FILLER_33_228
*1274 FILLER_33_240
*1275 FILLER_33_255
*1276 FILLER_33_263
*1277 FILLER_33_267
*1278 FILLER_33_27
*1279 FILLER_33_279
*1280 FILLER_33_281
*1281 FILLER_33_293
*1282 FILLER_33_3
*1283 FILLER_33_305
*1284 FILLER_33_317
*1285 FILLER_33_329
*1286 FILLER_33_335
*1287 FILLER_33_337
*1288 FILLER_33_349
*1289 FILLER_33_361
*1290 FILLER_33_373
*1291 FILLER_33_385
*1292 FILLER_33_39
*1293 FILLER_33_391
*1294 FILLER_33_393
*1295 FILLER_33_399
*1296 FILLER_33_403
*1297 FILLER_33_51
*1298 FILLER_33_55
*1299 FILLER_33_57
*1300 FILLER_33_69
*1301 FILLER_33_81
*1302 FILLER_33_93
*1303 FILLER_34_109
*1304 FILLER_34_121
*1305 FILLER_34_133
*1306 FILLER_34_139
*1307 FILLER_34_141
*1308 FILLER_34_15
*1309 FILLER_34_153
*1310 FILLER_34_165
*1311 FILLER_34_177
*1312 FILLER_34_192
*1313 FILLER_34_197
*1314 FILLER_34_201
*1315 FILLER_34_208
*1316 FILLER_34_216
*1317 FILLER_34_222
*1318 FILLER_34_233
*1319 FILLER_34_240
*1320 FILLER_34_244
*1321 FILLER_34_248
*1322 FILLER_34_27
*1323 FILLER_34_273
*1324 FILLER_34_285
*1325 FILLER_34_29
*1326 FILLER_34_297
*1327 FILLER_34_3
*1328 FILLER_34_305
*1329 FILLER_34_309
*1330 FILLER_34_321
*1331 FILLER_34_333
*1332 FILLER_34_345
*1333 FILLER_34_357
*1334 FILLER_34_363
*1335 FILLER_34_365
*1336 FILLER_34_377
*1337 FILLER_34_389
*1338 FILLER_34_401
*1339 FILLER_34_41
*1340 FILLER_34_53
*1341 FILLER_34_65
*1342 FILLER_34_77
*1343 FILLER_34_83
*1344 FILLER_34_85
*1345 FILLER_34_97
*1346 FILLER_35_105
*1347 FILLER_35_111
*1348 FILLER_35_113
*1349 FILLER_35_125
*1350 FILLER_35_137
*1351 FILLER_35_149
*1352 FILLER_35_15
*1353 FILLER_35_161
*1354 FILLER_35_167
*1355 FILLER_35_169
*1356 FILLER_35_181
*1357 FILLER_35_193
*1358 FILLER_35_202
*1359 FILLER_35_214
*1360 FILLER_35_220
*1361 FILLER_35_232
*1362 FILLER_35_244
*1363 FILLER_35_256
*1364 FILLER_35_268
*1365 FILLER_35_27
*1366 FILLER_35_281
*1367 FILLER_35_293
*1368 FILLER_35_3
*1369 FILLER_35_305
*1370 FILLER_35_317
*1371 FILLER_35_329
*1372 FILLER_35_335
*1373 FILLER_35_337
*1374 FILLER_35_349
*1375 FILLER_35_361
*1376 FILLER_35_373
*1377 FILLER_35_385
*1378 FILLER_35_39
*1379 FILLER_35_391
*1380 FILLER_35_393
*1381 FILLER_35_405
*1382 FILLER_35_51
*1383 FILLER_35_55
*1384 FILLER_35_57
*1385 FILLER_35_69
*1386 FILLER_35_81
*1387 FILLER_35_93
*1388 FILLER_36_109
*1389 FILLER_36_121
*1390 FILLER_36_133
*1391 FILLER_36_139
*1392 FILLER_36_141
*1393 FILLER_36_15
*1394 FILLER_36_153
*1395 FILLER_36_165
*1396 FILLER_36_177
*1397 FILLER_36_189
*1398 FILLER_36_195
*1399 FILLER_36_220
*1400 FILLER_36_232
*1401 FILLER_36_236
*1402 FILLER_36_245
*1403 FILLER_36_251
*1404 FILLER_36_256
*1405 FILLER_36_268
*1406 FILLER_36_27
*1407 FILLER_36_280
*1408 FILLER_36_29
*1409 FILLER_36_292
*1410 FILLER_36_3
*1411 FILLER_36_304
*1412 FILLER_36_309
*1413 FILLER_36_321
*1414 FILLER_36_333
*1415 FILLER_36_345
*1416 FILLER_36_357
*1417 FILLER_36_363
*1418 FILLER_36_365
*1419 FILLER_36_377
*1420 FILLER_36_389
*1421 FILLER_36_401
*1422 FILLER_36_41
*1423 FILLER_36_53
*1424 FILLER_36_65
*1425 FILLER_36_77
*1426 FILLER_36_83
*1427 FILLER_36_85
*1428 FILLER_36_97
*1429 FILLER_37_105
*1430 FILLER_37_111
*1431 FILLER_37_113
*1432 FILLER_37_125
*1433 FILLER_37_137
*1434 FILLER_37_149
*1435 FILLER_37_15
*1436 FILLER_37_161
*1437 FILLER_37_167
*1438 FILLER_37_169
*1439 FILLER_37_181
*1440 FILLER_37_212
*1441 FILLER_37_220
*1442 FILLER_37_232
*1443 FILLER_37_240
*1444 FILLER_37_247
*1445 FILLER_37_259
*1446 FILLER_37_27
*1447 FILLER_37_271
*1448 FILLER_37_279
*1449 FILLER_37_281
*1450 FILLER_37_293
*1451 FILLER_37_3
*1452 FILLER_37_305
*1453 FILLER_37_317
*1454 FILLER_37_329
*1455 FILLER_37_335
*1456 FILLER_37_337
*1457 FILLER_37_349
*1458 FILLER_37_361
*1459 FILLER_37_373
*1460 FILLER_37_385
*1461 FILLER_37_39
*1462 FILLER_37_391
*1463 FILLER_37_393
*1464 FILLER_37_405
*1465 FILLER_37_51
*1466 FILLER_37_55
*1467 FILLER_37_57
*1468 FILLER_37_69
*1469 FILLER_37_81
*1470 FILLER_37_93
*1471 FILLER_38_109
*1472 FILLER_38_121
*1473 FILLER_38_133
*1474 FILLER_38_139
*1475 FILLER_38_141
*1476 FILLER_38_15
*1477 FILLER_38_153
*1478 FILLER_38_165
*1479 FILLER_38_177
*1480 FILLER_38_189
*1481 FILLER_38_195
*1482 FILLER_38_197
*1483 FILLER_38_204
*1484 FILLER_38_212
*1485 FILLER_38_223
*1486 FILLER_38_232
*1487 FILLER_38_244
*1488 FILLER_38_253
*1489 FILLER_38_265
*1490 FILLER_38_27
*1491 FILLER_38_277
*1492 FILLER_38_289
*1493 FILLER_38_29
*1494 FILLER_38_3
*1495 FILLER_38_301
*1496 FILLER_38_307
*1497 FILLER_38_309
*1498 FILLER_38_321
*1499 FILLER_38_333
*1500 FILLER_38_345
*1501 FILLER_38_357
*1502 FILLER_38_363
*1503 FILLER_38_365
*1504 FILLER_38_377
*1505 FILLER_38_389
*1506 FILLER_38_401
*1507 FILLER_38_41
*1508 FILLER_38_53
*1509 FILLER_38_65
*1510 FILLER_38_77
*1511 FILLER_38_83
*1512 FILLER_38_85
*1513 FILLER_38_97
*1514 FILLER_39_105
*1515 FILLER_39_111
*1516 FILLER_39_113
*1517 FILLER_39_125
*1518 FILLER_39_137
*1519 FILLER_39_149
*1520 FILLER_39_15
*1521 FILLER_39_161
*1522 FILLER_39_167
*1523 FILLER_39_169
*1524 FILLER_39_181
*1525 FILLER_39_193
*1526 FILLER_39_205
*1527 FILLER_39_217
*1528 FILLER_39_223
*1529 FILLER_39_228
*1530 FILLER_39_240
*1531 FILLER_39_252
*1532 FILLER_39_264
*1533 FILLER_39_27
*1534 FILLER_39_276
*1535 FILLER_39_281
*1536 FILLER_39_293
*1537 FILLER_39_3
*1538 FILLER_39_305
*1539 FILLER_39_317
*1540 FILLER_39_329
*1541 FILLER_39_335
*1542 FILLER_39_337
*1543 FILLER_39_349
*1544 FILLER_39_361
*1545 FILLER_39_373
*1546 FILLER_39_385
*1547 FILLER_39_39
*1548 FILLER_39_391
*1549 FILLER_39_393
*1550 FILLER_39_405
*1551 FILLER_39_51
*1552 FILLER_39_55
*1553 FILLER_39_57
*1554 FILLER_39_69
*1555 FILLER_39_81
*1556 FILLER_39_93
*1557 FILLER_3_105
*1558 FILLER_3_111
*1559 FILLER_3_113
*1560 FILLER_3_125
*1561 FILLER_3_137
*1562 FILLER_3_149
*1563 FILLER_3_15
*1564 FILLER_3_161
*1565 FILLER_3_167
*1566 FILLER_3_169
*1567 FILLER_3_181
*1568 FILLER_3_193
*1569 FILLER_3_205
*1570 FILLER_3_217
*1571 FILLER_3_223
*1572 FILLER_3_225
*1573 FILLER_3_237
*1574 FILLER_3_249
*1575 FILLER_3_261
*1576 FILLER_3_27
*1577 FILLER_3_273
*1578 FILLER_3_279
*1579 FILLER_3_281
*1580 FILLER_3_293
*1581 FILLER_3_3
*1582 FILLER_3_305
*1583 FILLER_3_317
*1584 FILLER_3_329
*1585 FILLER_3_335
*1586 FILLER_3_337
*1587 FILLER_3_349
*1588 FILLER_3_361
*1589 FILLER_3_373
*1590 FILLER_3_385
*1591 FILLER_3_39
*1592 FILLER_3_391
*1593 FILLER_3_393
*1594 FILLER_3_405
*1595 FILLER_3_51
*1596 FILLER_3_55
*1597 FILLER_3_57
*1598 FILLER_3_69
*1599 FILLER_3_81
*1600 FILLER_3_93
*1601 FILLER_40_109
*1602 FILLER_40_121
*1603 FILLER_40_133
*1604 FILLER_40_139