*SPEF "ieee 1481-1999"
*DESIGN "Multiplier_RR"
*DATE "11:11:11 Fri 11 11, 1111"
*VENDOR "OpenRCX"
*PROGRAM "Parallel Extraction"
*VERSION "1.0"
*DESIGN_FLOW "NAME_SCOPE LOCAL" "PIN_CAP NONE"
*DIVIDER /
*DELIMITER :
*BUS_DELIMITER []
*T_UNIT 1 NS
*C_UNIT 1 PF
*R_UNIT 1 OHM
*L_UNIT 1 HENRY

*NAME_MAP
*1 Ready
*2 Start
*5 clock
*6 product[0]
*7 product[1]
*8 product[2]
*9 product[3]
*10 product[4]
*11 product[5]
*12 product[6]
*13 product[7]
*14 reset
*15 word1[0]
*16 word1[1]
*17 word1[2]
*18 word1[3]
*19 word2[0]
*20 word2[1]
*21 word2[2]
*22 word2[3]
*23 M0_Controller\.next_state
*24 M0_Controller\.state
*25 M1_Datapath\.counter\[0\]
*26 M1_Datapath\.counter\[1\]
*27 M1_Datapath\.counter\[2\]
*28 M1_Datapath\.multiplicand\[0\]
*29 M1_Datapath\.multiplicand\[1\]
*30 M1_Datapath\.multiplicand\[2\]
*31 M1_Datapath\.multiplicand\[3\]
*32 M1_Datapath\.product\[8\]
*33 _000_
*34 _001_
*35 _002_
*36 _003_
*37 _004_
*38 _005_
*39 _006_
*40 _007_
*41 _008_
*42 _009_
*43 _010_
*44 _011_
*45 _012_
*46 _013_
*47 _014_
*48 _015_
*49 _016_
*50 _017_
*51 _018_
*52 _019_
*53 _020_
*54 _021_
*55 _022_
*56 _023_
*57 _024_
*58 _025_
*59 _026_
*60 _027_
*61 _028_
*62 _029_
*63 _030_
*64 _031_
*65 _032_
*66 _033_
*67 _034_
*68 _035_
*69 _036_
*70 _037_
*71 _038_
*72 _039_
*73 _040_
*74 _041_
*75 _042_
*76 _043_
*77 _044_
*78 _045_
*79 _046_
*80 _047_
*81 _048_
*82 _049_
*83 _050_
*84 _051_
*85 _052_
*86 _053_
*87 _054_
*88 _055_
*89 _056_
*90 _057_
*91 _058_
*92 _059_
*93 _060_
*94 _061_
*95 _062_
*96 _063_
*97 _064_
*98 _065_
*99 _066_
*100 _067_
*101 _068_
*102 _069_
*103 _070_
*104 _071_
*105 _072_
*106 _073_
*107 _074_
*108 _075_
*109 _076_
*110 _077_
*111 _078_
*112 _079_
*113 _080_
*114 _081_
*115 _082_
*116 _083_
*117 _084_
*118 _085_
*119 _086_
*120 _087_
*121 _088_
*122 _089_
*123 _090_
*124 _091_
*125 _092_
*126 _093_
*127 _094_
*128 _095_
*129 _096_
*130 _097_
*131 _098_
*132 _099_
*133 _100_
*134 _101_
*135 _102_
*136 _103_
*137 _104_
*138 _105_
*139 _106_
*140 _107_
*141 _108_
*142 _109_
*143 _110_
*144 _111_
*145 clknet_0_clock
*146 clknet_1_0__leaf_clock
*147 clknet_1_1__leaf_clock
*148 net1
*149 net10
*150 net11
*151 net12
*152 net13
*153 net14
*154 net15
*155 net16
*156 net17
*157 net18
*158 net19
*159 net2
*160 net3
*161 net4
*162 net5
*163 net6
*164 net7
*165 net8
*166 net9
*167 FILLER_0_109
*168 FILLER_0_11
*169 FILLER_0_113
*170 FILLER_0_125
*171 FILLER_0_137
*172 FILLER_0_141
*173 FILLER_0_149
*174 FILLER_0_161
*175 FILLER_0_167
*176 FILLER_0_169
*177 FILLER_0_181
*178 FILLER_0_193
*179 FILLER_0_197
*180 FILLER_0_205
*181 FILLER_0_210
*182 FILLER_0_222
*183 FILLER_0_225
*184 FILLER_0_23
*185 FILLER_0_237
*186 FILLER_0_249
*187 FILLER_0_253
*188 FILLER_0_265
*189 FILLER_0_27
*190 FILLER_0_277
*191 FILLER_0_281
*192 FILLER_0_289
*193 FILLER_0_29
*194 FILLER_0_3
*195 FILLER_0_301
*196 FILLER_0_307
*197 FILLER_0_309
*198 FILLER_0_321
*199 FILLER_0_333
*200 FILLER_0_337
*201 FILLER_0_349
*202 FILLER_0_357
*203 FILLER_0_363
*204 FILLER_0_365
*205 FILLER_0_377
*206 FILLER_0_389
*207 FILLER_0_393
*208 FILLER_0_403
*209 FILLER_0_41
*210 FILLER_0_53
*211 FILLER_0_57
*212 FILLER_0_65
*213 FILLER_0_77
*214 FILLER_0_83
*215 FILLER_0_85
*216 FILLER_0_97
*217 FILLER_10_109
*218 FILLER_10_121
*219 FILLER_10_133
*220 FILLER_10_139
*221 FILLER_10_141
*222 FILLER_10_15
*223 FILLER_10_153
*224 FILLER_10_165
*225 FILLER_10_177
*226 FILLER_10_189
*227 FILLER_10_195
*228 FILLER_10_197
*229 FILLER_10_209
*230 FILLER_10_221
*231 FILLER_10_233
*232 FILLER_10_245
*233 FILLER_10_251
*234 FILLER_10_253
*235 FILLER_10_265
*236 FILLER_10_27
*237 FILLER_10_277
*238 FILLER_10_289
*239 FILLER_10_29
*240 FILLER_10_3
*241 FILLER_10_301
*242 FILLER_10_307
*243 FILLER_10_309
*244 FILLER_10_321
*245 FILLER_10_333
*246 FILLER_10_345
*247 FILLER_10_357
*248 FILLER_10_363
*249 FILLER_10_365
*250 FILLER_10_377
*251 FILLER_10_389
*252 FILLER_10_401
*253 FILLER_10_41
*254 FILLER_10_53
*255 FILLER_10_65
*256 FILLER_10_77
*257 FILLER_10_83
*258 FILLER_10_85
*259 FILLER_10_97
*260 FILLER_11_105
*261 FILLER_11_111
*262 FILLER_11_113
*263 FILLER_11_125
*264 FILLER_11_137
*265 FILLER_11_149
*266 FILLER_11_15
*267 FILLER_11_161
*268 FILLER_11_167
*269 FILLER_11_169
*270 FILLER_11_181
*271 FILLER_11_193
*272 FILLER_11_205
*273 FILLER_11_217
*274 FILLER_11_223
*275 FILLER_11_225
*276 FILLER_11_237
*277 FILLER_11_249
*278 FILLER_11_261
*279 FILLER_11_27
*280 FILLER_11_273
*281 FILLER_11_279
*282 FILLER_11_281
*283 FILLER_11_293
*284 FILLER_11_3
*285 FILLER_11_305
*286 FILLER_11_317
*287 FILLER_11_329
*288 FILLER_11_335
*289 FILLER_11_337
*290 FILLER_11_349
*291 FILLER_11_361
*292 FILLER_11_373
*293 FILLER_11_385
*294 FILLER_11_39
*295 FILLER_11_391
*296 FILLER_11_393
*297 FILLER_11_405
*298 FILLER_11_51
*299 FILLER_11_55
*300 FILLER_11_57
*301 FILLER_11_69
*302 FILLER_11_81
*303 FILLER_11_93
*304 FILLER_12_109
*305 FILLER_12_121
*306 FILLER_12_133
*307 FILLER_12_139
*308 FILLER_12_141
*309 FILLER_12_15
*310 FILLER_12_153
*311 FILLER_12_165
*312 FILLER_12_177
*313 FILLER_12_189
*314 FILLER_12_195
*315 FILLER_12_197
*316 FILLER_12_209
*317 FILLER_12_221
*318 FILLER_12_233
*319 FILLER_12_245
*320 FILLER_12_251
*321 FILLER_12_253
*322 FILLER_12_265
*323 FILLER_12_27
*324 FILLER_12_277
*325 FILLER_12_289
*326 FILLER_12_29
*327 FILLER_12_3
*328 FILLER_12_301
*329 FILLER_12_307
*330 FILLER_12_309
*331 FILLER_12_321
*332 FILLER_12_333
*333 FILLER_12_345
*334 FILLER_12_357
*335 FILLER_12_363
*336 FILLER_12_365
*337 FILLER_12_377
*338 FILLER_12_389
*339 FILLER_12_401
*340 FILLER_12_41
*341 FILLER_12_53
*342 FILLER_12_65
*343 FILLER_12_77
*344 FILLER_12_83
*345 FILLER_12_85
*346 FILLER_12_97
*347 FILLER_13_105
*348 FILLER_13_111
*349 FILLER_13_113
*350 FILLER_13_125
*351 FILLER_13_137
*352 FILLER_13_149
*353 FILLER_13_15
*354 FILLER_13_161
*355 FILLER_13_167
*356 FILLER_13_169
*357 FILLER_13_181
*358 FILLER_13_193
*359 FILLER_13_205
*360 FILLER_13_217
*361 FILLER_13_223
*362 FILLER_13_225
*363 FILLER_13_237
*364 FILLER_13_249
*365 FILLER_13_261
*366 FILLER_13_27
*367 FILLER_13_273
*368 FILLER_13_279
*369 FILLER_13_281
*370 FILLER_13_293
*371 FILLER_13_3
*372 FILLER_13_305
*373 FILLER_13_317
*374 FILLER_13_329
*375 FILLER_13_335
*376 FILLER_13_337
*377 FILLER_13_349
*378 FILLER_13_361
*379 FILLER_13_373
*380 FILLER_13_385
*381 FILLER_13_39
*382 FILLER_13_391
*383 FILLER_13_393
*384 FILLER_13_405
*385 FILLER_13_51
*386 FILLER_13_55
*387 FILLER_13_57
*388 FILLER_13_69
*389 FILLER_13_81
*390 FILLER_13_93
*391 FILLER_14_109
*392 FILLER_14_11
*393 FILLER_14_121
*394 FILLER_14_133
*395 FILLER_14_139
*396 FILLER_14_141
*397 FILLER_14_153
*398 FILLER_14_165
*399 FILLER_14_177
*400 FILLER_14_189
*401 FILLER_14_195
*402 FILLER_14_197
*403 FILLER_14_209
*404 FILLER_14_221
*405 FILLER_14_23
*406 FILLER_14_233
*407 FILLER_14_245
*408 FILLER_14_251
*409 FILLER_14_253
*410 FILLER_14_265
*411 FILLER_14_27
*412 FILLER_14_277
*413 FILLER_14_289
*414 FILLER_14_29
*415 FILLER_14_3
*416 FILLER_14_301
*417 FILLER_14_307
*418 FILLER_14_309
*419 FILLER_14_321
*420 FILLER_14_333
*421 FILLER_14_345
*422 FILLER_14_357
*423 FILLER_14_363
*424 FILLER_14_365
*425 FILLER_14_377
*426 FILLER_14_389
*427 FILLER_14_401
*428 FILLER_14_41
*429 FILLER_14_53
*430 FILLER_14_65
*431 FILLER_14_77
*432 FILLER_14_83
*433 FILLER_14_85
*434 FILLER_14_97
*435 FILLER_15_105
*436 FILLER_15_111
*437 FILLER_15_113
*438 FILLER_15_125
*439 FILLER_15_137
*440 FILLER_15_149
*441 FILLER_15_15
*442 FILLER_15_161
*443 FILLER_15_167
*444 FILLER_15_169
*445 FILLER_15_181
*446 FILLER_15_193
*447 FILLER_15_205
*448 FILLER_15_217
*449 FILLER_15_223
*450 FILLER_15_225
*451 FILLER_15_237
*452 FILLER_15_249
*453 FILLER_15_261
*454 FILLER_15_27
*455 FILLER_15_273
*456 FILLER_15_279
*457 FILLER_15_281
*458 FILLER_15_293
*459 FILLER_15_3
*460 FILLER_15_305
*461 FILLER_15_317
*462 FILLER_15_329
*463 FILLER_15_335
*464 FILLER_15_337
*465 FILLER_15_349
*466 FILLER_15_361
*467 FILLER_15_373
*468 FILLER_15_385
*469 FILLER_15_39
*470 FILLER_15_391
*471 FILLER_15_393
*472 FILLER_15_399
*473 FILLER_15_403
*474 FILLER_15_51
*475 FILLER_15_55
*476 FILLER_15_57
*477 FILLER_15_69
*478 FILLER_15_81
*479 FILLER_15_93
*480 FILLER_16_109
*481 FILLER_16_121
*482 FILLER_16_133
*483 FILLER_16_139
*484 FILLER_16_141
*485 FILLER_16_15
*486 FILLER_16_153
*487 FILLER_16_165
*488 FILLER_16_177
*489 FILLER_16_189
*490 FILLER_16_195
*491 FILLER_16_197
*492 FILLER_16_209
*493 FILLER_16_221
*494 FILLER_16_233
*495 FILLER_16_245
*496 FILLER_16_251
*497 FILLER_16_253
*498 FILLER_16_265
*499 FILLER_16_27
*500 FILLER_16_277
*501 FILLER_16_289
*502 FILLER_16_29
*503 FILLER_16_3
*504 FILLER_16_301
*505 FILLER_16_307
*506 FILLER_16_309
*507 FILLER_16_321
*508 FILLER_16_333
*509 FILLER_16_345
*510 FILLER_16_357
*511 FILLER_16_363
*512 FILLER_16_365
*513 FILLER_16_377
*514 FILLER_16_389
*515 FILLER_16_401
*516 FILLER_16_41
*517 FILLER_16_53
*518 FILLER_16_65
*519 FILLER_16_77
*520 FILLER_16_83
*521 FILLER_16_85
*522 FILLER_16_97
*523 FILLER_17_105
*524 FILLER_17_111
*525 FILLER_17_113
*526 FILLER_17_125
*527 FILLER_17_137
*528 FILLER_17_149
*529 FILLER_17_15
*530 FILLER_17_161
*531 FILLER_17_167
*532 FILLER_17_169
*533 FILLER_17_181
*534 FILLER_17_193
*535 FILLER_17_205
*536 FILLER_17_217
*537 FILLER_17_223
*538 FILLER_17_225
*539 FILLER_17_237
*540 FILLER_17_249
*541 FILLER_17_261
*542 FILLER_17_27
*543 FILLER_17_273
*544 FILLER_17_279
*545 FILLER_17_281
*546 FILLER_17_293
*547 FILLER_17_3
*548 FILLER_17_305
*549 FILLER_17_317
*550 FILLER_17_329
*551 FILLER_17_335
*552 FILLER_17_337
*553 FILLER_17_349
*554 FILLER_17_361
*555 FILLER_17_373
*556 FILLER_17_385
*557 FILLER_17_39
*558 FILLER_17_391
*559 FILLER_17_393
*560 FILLER_17_405
*561 FILLER_17_51
*562 FILLER_17_55
*563 FILLER_17_57
*564 FILLER_17_69
*565 FILLER_17_81
*566 FILLER_17_93
*567 FILLER_18_109
*568 FILLER_18_121
*569 FILLER_18_133
*570 FILLER_18_139
*571 FILLER_18_141
*572 FILLER_18_15
*573 FILLER_18_153
*574 FILLER_18_165
*575 FILLER_18_177
*576 FILLER_18_189
*577 FILLER_18_195
*578 FILLER_18_197
*579 FILLER_18_209
*580 FILLER_18_221
*581 FILLER_18_233
*582 FILLER_18_245
*583 FILLER_18_251
*584 FILLER_18_253
*585 FILLER_18_265
*586 FILLER_18_27
*587 FILLER_18_277
*588 FILLER_18_289
*589 FILLER_18_29
*590 FILLER_18_3
*591 FILLER_18_301
*592 FILLER_18_307
*593 FILLER_18_309
*594 FILLER_18_321
*595 FILLER_18_333
*596 FILLER_18_345
*597 FILLER_18_357
*598 FILLER_18_363
*599 FILLER_18_365
*600 FILLER_18_377
*601 FILLER_18_389
*602 FILLER_18_401
*603 FILLER_18_41
*604 FILLER_18_53
*605 FILLER_18_65
*606 FILLER_18_77
*607 FILLER_18_83
*608 FILLER_18_85
*609 FILLER_18_97
*610 FILLER_19_105
*611 FILLER_19_111
*612 FILLER_19_113
*613 FILLER_19_125
*614 FILLER_19_137
*615 FILLER_19_149
*616 FILLER_19_15
*617 FILLER_19_161
*618 FILLER_19_167
*619 FILLER_19_169
*620 FILLER_19_181
*621 FILLER_19_193
*622 FILLER_19_205
*623 FILLER_19_217
*624 FILLER_19_223
*625 FILLER_19_225
*626 FILLER_19_237
*627 FILLER_19_249
*628 FILLER_19_261
*629 FILLER_19_27
*630 FILLER_19_273
*631 FILLER_19_279
*632 FILLER_19_281
*633 FILLER_19_293
*634 FILLER_19_3
*635 FILLER_19_305
*636 FILLER_19_317
*637 FILLER_19_329
*638 FILLER_19_335
*639 FILLER_19_337
*640 FILLER_19_349
*641 FILLER_19_361
*642 FILLER_19_373
*643 FILLER_19_385
*644 FILLER_19_39
*645 FILLER_19_391
*646 FILLER_19_393
*647 FILLER_19_405
*648 FILLER_19_51
*649 FILLER_19_55
*650 FILLER_19_57
*651 FILLER_19_69
*652 FILLER_19_81
*653 FILLER_19_93
*654 FILLER_1_105
*655 FILLER_1_111
*656 FILLER_1_113
*657 FILLER_1_125
*658 FILLER_1_137
*659 FILLER_1_149
*660 FILLER_1_15
*661 FILLER_1_161
*662 FILLER_1_167
*663 FILLER_1_169
*664 FILLER_1_181
*665 FILLER_1_193
*666 FILLER_1_205
*667 FILLER_1_217
*668 FILLER_1_223
*669 FILLER_1_225
*670 FILLER_1_237
*671 FILLER_1_249
*672 FILLER_1_256
*673 FILLER_1_268
*674 FILLER_1_27
*675 FILLER_1_281
*676 FILLER_1_293
*677 FILLER_1_3
*678 FILLER_1_305
*679 FILLER_1_317
*680 FILLER_1_329
*681 FILLER_1_335
*682 FILLER_1_337
*683 FILLER_1_349
*684 FILLER_1_361
*685 FILLER_1_373
*686 FILLER_1_385
*687 FILLER_1_39
*688 FILLER_1_391
*689 FILLER_1_393
*690 FILLER_1_405
*691 FILLER_1_51
*692 FILLER_1_55
*693 FILLER_1_57
*694 FILLER_1_69
*695 FILLER_1_81
*696 FILLER_1_93
*697 FILLER_20_109
*698 FILLER_20_121
*699 FILLER_20_133
*700 FILLER_20_139
*701 FILLER_20_141
*702 FILLER_20_15
*703 FILLER_20_153
*704 FILLER_20_165
*705 FILLER_20_177
*706 FILLER_20_189
*707 FILLER_20_195
*708 FILLER_20_197
*709 FILLER_20_209
*710 FILLER_20_221
*711 FILLER_20_233
*712 FILLER_20_245
*713 FILLER_20_251
*714 FILLER_20_253
*715 FILLER_20_265
*716 FILLER_20_27
*717 FILLER_20_277
*718 FILLER_20_289
*719 FILLER_20_29
*720 FILLER_20_3
*721 FILLER_20_301
*722 FILLER_20_307
*723 FILLER_20_309
*724 FILLER_20_321
*725 FILLER_20_333
*726 FILLER_20_345
*727 FILLER_20_357
*728 FILLER_20_363
*729 FILLER_20_365
*730 FILLER_20_377
*731 FILLER_20_389
*732 FILLER_20_401
*733 FILLER_20_41
*734 FILLER_20_53
*735 FILLER_20_65
*736 FILLER_20_77
*737 FILLER_20_83
*738 FILLER_20_85
*739 FILLER_20_97
*740 FILLER_21_105
*741 FILLER_21_111
*742 FILLER_21_113
*743 FILLER_21_125
*744 FILLER_21_137
*745 FILLER_21_149
*746 FILLER_21_15
*747 FILLER_21_161
*748 FILLER_21_167
*749 FILLER_21_169
*750 FILLER_21_181
*751 FILLER_21_193
*752 FILLER_21_205
*753 FILLER_21_217
*754 FILLER_21_223
*755 FILLER_21_225
*756 FILLER_21_237
*757 FILLER_21_249
*758 FILLER_21_261
*759 FILLER_21_27
*760 FILLER_21_273
*761 FILLER_21_279
*762 FILLER_21_281
*763 FILLER_21_293
*764 FILLER_21_3
*765 FILLER_21_305
*766 FILLER_21_317
*767 FILLER_21_329
*768 FILLER_21_335
*769 FILLER_21_337
*770 FILLER_21_349
*771 FILLER_21_361
*772 FILLER_21_373
*773 FILLER_21_385
*774 FILLER_21_39
*775 FILLER_21_391
*776 FILLER_21_393
*777 FILLER_21_405
*778 FILLER_21_51
*779 FILLER_21_55
*780 FILLER_21_57
*781 FILLER_21_69
*782 FILLER_21_81
*783 FILLER_21_93
*784 FILLER_22_109
*785 FILLER_22_121
*786 FILLER_22_133
*787 FILLER_22_139
*788 FILLER_22_141
*789 FILLER_22_15
*790 FILLER_22_153
*791 FILLER_22_165
*792 FILLER_22_177
*793 FILLER_22_189
*794 FILLER_22_195
*795 FILLER_22_197
*796 FILLER_22_209
*797 FILLER_22_221
*798 FILLER_22_233
*799 FILLER_22_245
*800 FILLER_22_251
*801 FILLER_22_253
*802 FILLER_22_265
*803 FILLER_22_27
*804 FILLER_22_277
*805 FILLER_22_289
*806 FILLER_22_29
*807 FILLER_22_3
*808 FILLER_22_301
*809 FILLER_22_307
*810 FILLER_22_309
*811 FILLER_22_321
*812 FILLER_22_333
*813 FILLER_22_345
*814 FILLER_22_357
*815 FILLER_22_363
*816 FILLER_22_365
*817 FILLER_22_377
*818 FILLER_22_389
*819 FILLER_22_401
*820 FILLER_22_41
*821 FILLER_22_53
*822 FILLER_22_65
*823 FILLER_22_77
*824 FILLER_22_83
*825 FILLER_22_85
*826 FILLER_22_97
*827 FILLER_23_105
*828 FILLER_23_111
*829 FILLER_23_113
*830 FILLER_23_125
*831 FILLER_23_137
*832 FILLER_23_149
*833 FILLER_23_15
*834 FILLER_23_161
*835 FILLER_23_167
*836 FILLER_23_169
*837 FILLER_23_181
*838 FILLER_23_193
*839 FILLER_23_205
*840 FILLER_23_217
*841 FILLER_23_223
*842 FILLER_23_225
*843 FILLER_23_237
*844 FILLER_23_249
*845 FILLER_23_261
*846 FILLER_23_27
*847 FILLER_23_273
*848 FILLER_23_279
*849 FILLER_23_281
*850 FILLER_23_293
*851 FILLER_23_3
*852 FILLER_23_305
*853 FILLER_23_317
*854 FILLER_23_329
*855 FILLER_23_335
*856 FILLER_23_337
*857 FILLER_23_349
*858 FILLER_23_361
*859 FILLER_23_373
*860 FILLER_23_385
*861 FILLER_23_39
*862 FILLER_23_391
*863 FILLER_23_393
*864 FILLER_23_405
*865 FILLER_23_51
*866 FILLER_23_55
*867 FILLER_23_57
*868 FILLER_23_69
*869 FILLER_23_81
*870 FILLER_23_93
*871 FILLER_24_109
*872 FILLER_24_121
*873 FILLER_24_133
*874 FILLER_24_139
*875 FILLER_24_141
*876 FILLER_24_15
*877 FILLER_24_153
*878 FILLER_24_165
*879 FILLER_24_177
*880 FILLER_24_189
*881 FILLER_24_195
*882 FILLER_24_197
*883 FILLER_24_209
*884 FILLER_24_221
*885 FILLER_24_233
*886 FILLER_24_245
*887 FILLER_24_251
*888 FILLER_24_253
*889 FILLER_24_265
*890 FILLER_24_27
*891 FILLER_24_277
*892 FILLER_24_289
*893 FILLER_24_29
*894 FILLER_24_3
*895 FILLER_24_301
*896 FILLER_24_307
*897 FILLER_24_309
*898 FILLER_24_321
*899 FILLER_24_333
*900 FILLER_24_345
*901 FILLER_24_357
*902 FILLER_24_363
*903 FILLER_24_365
*904 FILLER_24_377
*905 FILLER_24_389
*906 FILLER_24_401
*907 FILLER_24_41
*908 FILLER_24_53
*909 FILLER_24_65
*910 FILLER_24_77
*911 FILLER_24_83
*912 FILLER_24_85
*913 FILLER_24_97
*914 FILLER_25_105
*915 FILLER_25_111
*916 FILLER_25_113
*917 FILLER_25_125
*918 FILLER_25_137
*919 FILLER_25_149
*920 FILLER_25_15
*921 FILLER_25_161
*922 FILLER_25_167
*923 FILLER_25_169
*924 FILLER_25_181
*925 FILLER_25_193
*926 FILLER_25_205
*927 FILLER_25_217
*928 FILLER_25_223
*929 FILLER_25_225
*930 FILLER_25_237
*931 FILLER_25_249
*932 FILLER_25_261
*933 FILLER_25_27
*934 FILLER_25_273
*935 FILLER_25_279
*936 FILLER_25_281
*937 FILLER_25_293
*938 FILLER_25_3
*939 FILLER_25_305
*940 FILLER_25_317
*941 FILLER_25_329
*942 FILLER_25_335
*943 FILLER_25_337
*944 FILLER_25_349
*945 FILLER_25_361
*946 FILLER_25_373
*947 FILLER_25_385
*948 FILLER_25_39
*949 FILLER_25_391
*950 FILLER_25_393
*951 FILLER_25_405
*952 FILLER_25_51
*953 FILLER_25_55
*954 FILLER_25_57
*955 FILLER_25_69
*956 FILLER_25_81
*957 FILLER_25_93
*958 FILLER_26_109
*959 FILLER_26_121
*960 FILLER_26_133
*961 FILLER_26_139
*962 FILLER_26_141
*963 FILLER_26_15
*964 FILLER_26_153
*965 FILLER_26_165
*966 FILLER_26_177
*967 FILLER_26_189
*968 FILLER_26_195
*969 FILLER_26_197
*970 FILLER_26_209
*971 FILLER_26_221
*972 FILLER_26_233
*973 FILLER_26_245
*974 FILLER_26_251
*975 FILLER_26_253
*976 FILLER_26_265
*977 FILLER_26_27
*978 FILLER_26_277
*979 FILLER_26_289
*980 FILLER_26_29
*981 FILLER_26_3
*982 FILLER_26_301
*983 FILLER_26_307
*984 FILLER_26_309
*985 FILLER_26_321
*986 FILLER_26_333
*987 FILLER_26_345
*988 FILLER_26_357
*989 FILLER_26_363
*990 FILLER_26_365
*991 FILLER_26_377
*992 FILLER_26_389
*993 FILLER_26_401
*994 FILLER_26_41
*995 FILLER_26_53
*996 FILLER_26_65
*997 FILLER_26_77
*998 FILLER_26_83
*999 FILLER_26_85
*1000 FILLER_26_97
*1001 FILLER_27_105
*1002 FILLER_27_111
*1003 FILLER_27_113
*1004 FILLER_27_125
*1005 FILLER_27_137
*1006 FILLER_27_149
*1007 FILLER_27_15
*1008 FILLER_27_161
*1009 FILLER_27_167
*1010 FILLER_27_169
*1011 FILLER_27_181
*1012 FILLER_27_193
*1013 FILLER_27_205
*1014 FILLER_27_217
*1015 FILLER_27_223
*1016 FILLER_27_225
*1017 FILLER_27_237
*1018 FILLER_27_249
*1019 FILLER_27_261
*1020 FILLER_27_27
*1021 FILLER_27_273
*1022 FILLER_27_279
*1023 FILLER_27_281
*1024 FILLER_27_293
*1025 FILLER_27_3
*1026 FILLER_27_305
*1027 FILLER_27_317
*1028 FILLER_27_329
*1029 FILLER_27_335
*1030 FILLER_27_337
*1031 FILLER_27_349
*1032 FILLER_27_361
*1033 FILLER_27_373
*1034 FILLER_27_385
*1035 FILLER_27_39
*1036 FILLER_27_391
*1037 FILLER_27_393
*1038 FILLER_27_405
*1039 FILLER_27_51
*1040 FILLER_27_55
*1041 FILLER_27_57
*1042 FILLER_27_69
*1043 FILLER_27_81
*1044 FILLER_27_93
*1045 FILLER_28_109
*1046 FILLER_28_121
*1047 FILLER_28_133
*1048 FILLER_28_139
*1049 FILLER_28_141
*1050 FILLER_28_15
*1051 FILLER_28_153
*1052 FILLER_28_165
*1053 FILLER_28_177
*1054 FILLER_28_189
*1055 FILLER_28_195
*1056 FILLER_28_197
*1057 FILLER_28_209
*1058 FILLER_28_221
*1059 FILLER_28_233
*1060 FILLER_28_245
*1061 FILLER_28_251
*1062 FILLER_28_256
*1063 FILLER_28_268
*1064 FILLER_28_27
*1065 FILLER_28_280
*1066 FILLER_28_29
*1067 FILLER_28_292
*1068 FILLER_28_3
*1069 FILLER_28_304
*1070 FILLER_28_309
*1071 FILLER_28_321
*1072 FILLER_28_333
*1073 FILLER_28_345
*1074 FILLER_28_357
*1075 FILLER_28_363
*1076 FILLER_28_365
*1077 FILLER_28_377
*1078 FILLER_28_389
*1079 FILLER_28_401
*1080 FILLER_28_41
*1081 FILLER_28_53
*1082 FILLER_28_65
*1083 FILLER_28_77
*1084 FILLER_28_83
*1085 FILLER_28_85
*1086 FILLER_28_97
*1087 FILLER_29_105
*1088 FILLER_29_111
*1089 FILLER_29_113
*1090 FILLER_29_125
*1091 FILLER_29_137
*1092 FILLER_29_149
*1093 FILLER_29_15
*1094 FILLER_29_161
*1095 FILLER_29_167
*1096 FILLER_29_169
*1097 FILLER_29_175
*1098 FILLER_29_199
*1099 FILLER_29_206
*1100 FILLER_29_214
*1101 FILLER_29_220
*1102 FILLER_29_225
*1103 FILLER_29_229
*1104 FILLER_29_233
*1105 FILLER_29_259
*1106 FILLER_29_27
*1107 FILLER_29_271
*1108 FILLER_29_279
*1109 FILLER_29_281
*1110 FILLER_29_293
*1111 FILLER_29_3
*1112 FILLER_29_305
*1113 FILLER_29_317
*1114 FILLER_29_329
*1115 FILLER_29_335
*1116 FILLER_29_337
*1117 FILLER_29_349
*1118 FILLER_29_361
*1119 FILLER_29_373
*1120 FILLER_29_385
*1121 FILLER_29_39
*1122 FILLER_29_391
*1123 FILLER_29_393
*1124 FILLER_29_405
*1125 FILLER_29_51
*1126 FILLER_29_55
*1127 FILLER_29_57
*1128 FILLER_29_69
*1129 FILLER_29_81
*1130 FILLER_29_93
*1131 FILLER_2_109
*1132 FILLER_2_121
*1133 FILLER_2_133
*1134 FILLER_2_139
*1135 FILLER_2_141
*1136 FILLER_2_15
*1137 FILLER_2_153
*1138 FILLER_2_165
*1139 FILLER_2_177
*1140 FILLER_2_189
*1141 FILLER_2_195
*1142 FILLER_2_197
*1143 FILLER_2_209
*1144 FILLER_2_221
*1145 FILLER_2_233
*1146 FILLER_2_245
*1147 FILLER_2_251
*1148 FILLER_2_253
*1149 FILLER_2_265
*1150 FILLER_2_27
*1151 FILLER_2_277
*1152 FILLER_2_289
*1153 FILLER_2_29
*1154 FILLER_2_3
*1155 FILLER_2_301
*1156 FILLER_2_307
*1157 FILLER_2_309
*1158 FILLER_2_321
*1159 FILLER_2_333
*1160 FILLER_2_345
*1161 FILLER_2_357
*1162 FILLER_2_363
*1163 FILLER_2_365
*1164 FILLER_2_377
*1165 FILLER_2_389
*1166 FILLER_2_401
*1167 FILLER_2_41
*1168 FILLER_2_53
*1169 FILLER_2_65
*1170 FILLER_2_77
*1171 FILLER_2_83
*1172 FILLER_2_85
*1173 FILLER_2_97
*1174 FILLER_30_109
*1175 FILLER_30_121
*1176 FILLER_30_133
*1177 FILLER_30_139
*1178 FILLER_30_141
*1179 FILLER_30_15
*1180 FILLER_30_153
*1181 FILLER_30_165
*1182 FILLER_30_177
*1183 FILLER_30_192
*1184 FILLER_30_218
*1185 FILLER_30_242
*1186 FILLER_30_250
*1187 FILLER_30_253
*1188 FILLER_30_260
*1189 FILLER_30_27
*1190 FILLER_30_272
*1191 FILLER_30_284
*1192 FILLER_30_29
*1193 FILLER_30_296
*1194 FILLER_30_3
*1195 FILLER_30_309
*1196 FILLER_30_321
*1197 FILLER_30_333
*1198 FILLER_30_345
*1199 FILLER_30_357
*1200 FILLER_30_363
*1201 FILLER_30_365
*1202 FILLER_30_377
*1203 FILLER_30_389
*1204 FILLER_30_401
*1205 FILLER_30_41
*1206 FILLER_30_53
*1207 FILLER_30_65
*1208 FILLER_30_77
*1209 FILLER_30_83
*1210 FILLER_30_85
*1211 FILLER_30_97
*1212 FILLER_31_105
*1213 FILLER_31_111
*1214 FILLER_31_113
*1215 FILLER_31_125
*1216 FILLER_31_137
*1217 FILLER_31_149
*1218 FILLER_31_15
*1219 FILLER_31_161
*1220 FILLER_31_167
*1221 FILLER_31_169
*1222 FILLER_31_186
*1223 FILLER_31_201
*1224 FILLER_31_209
*1225 FILLER_31_220
*1226 FILLER_31_228
*1227 FILLER_31_232
*1228 FILLER_31_243
*1229 FILLER_31_252
*1230 FILLER_31_264
*1231 FILLER_31_27
*1232 FILLER_31_276
*1233 FILLER_31_281
*1234 FILLER_31_293
*1235 FILLER_31_3
*1236 FILLER_31_305
*1237 FILLER_31_317
*1238 FILLER_31_329
*1239 FILLER_31_335
*1240 FILLER_31_337
*1241 FILLER_31_349
*1242 FILLER_31_361
*1243 FILLER_31_373
*1244 FILLER_31_385
*1245 FILLER_31_39
*1246 FILLER_31_391
*1247 FILLER_31_393
*1248 FILLER_31_405
*1249 FILLER_31_51
*1250 FILLER_31_55
*1251 FILLER_31_57
*1252 FILLER_31_69
*1253 FILLER_31_81
*1254 FILLER_31_93
*1255 FILLER_32_109
*1256 FILLER_32_121
*1257 FILLER_32_133
*1258 FILLER_32_139
*1259 FILLER_32_141
*1260 FILLER_32_153
*1261 FILLER_32_165
*1262 FILLER_32_177
*1263 FILLER_32_18
*1264 FILLER_32_189
*1265 FILLER_32_195
*1266 FILLER_32_206
*1267 FILLER_32_221
*1268 FILLER_32_233
*1269 FILLER_32_248
*1270 FILLER_32_26
*1271 FILLER_32_273
*1272 FILLER_32_285
*1273 FILLER_32_29
*1274 FILLER_32_297
*1275 FILLER_32_305
*1276 FILLER_32_309
*1277 FILLER_32_321
*1278 FILLER_32_333
*1279 FILLER_32_345
*1280 FILLER_32_357
*1281 FILLER_32_363
*1282 FILLER_32_365
*1283 FILLER_32_377
*1284 FILLER_32_389
*1285 FILLER_32_401
*1286 FILLER_32_41
*1287 FILLER_32_53
*1288 FILLER_32_6
*1289 FILLER_32_65
*1290 FILLER_32_77
*1291 FILLER_32_83
*1292 FILLER_32_85
*1293 FILLER_32_97
*1294 FILLER_33_105
*1295 FILLER_33_111
*1296 FILLER_33_113
*1297 FILLER_33_125
*1298 FILLER_33_137
*1299 FILLER_33_149
*1300 FILLER_33_15
*1301 FILLER_33_161
*1302 FILLER_33_167
*1303 FILLER_33_169
*1304 FILLER_33_181
*1305 FILLER_33_185
*1306 FILLER_33_194
*1307 FILLER_33_208
*1308 FILLER_33_220
*1309 FILLER_33_234
*1310 FILLER_33_246
*1311 FILLER_33_254
*1312 FILLER_33_27
*1313 FILLER_33_276
*1314 FILLER_33_281
*1315 FILLER_33_293
*1316 FILLER_33_3
*1317 FILLER_33_305
*1318 FILLER_33_317
*1319 FILLER_33_329
*1320 FILLER_33_335
*1321 FILLER_33_337
*1322 FILLER_33_349
*1323 FILLER_33_361
*1324 FILLER_33_373
*1325 FILLER_33_385
*1326 FILLER_33_39
*1327 FILLER_33_391
*1328 FILLER_33_393
*1329 FILLER_33_399
*1330 FILLER_33_403
*1331 FILLER_33_51
*1332 FILLER_33_55
*1333 FILLER_33_57
*1334 FILLER_33_69
*1335 FILLER_33_81
*1336 FILLER_33_93
*1337 FILLER_34_109
*1338 FILLER_34_121
*1339 FILLER_34_133
*1340 FILLER_34_139
*1341 FILLER_34_141
*1342 FILLER_34_15
*1343 FILLER_34_153
*1344 FILLER_34_165
*1345 FILLER_34_173
*1346 FILLER_34_179
*1347 FILLER_34_192
*1348 FILLER_34_197
*1349 FILLER_34_210
*1350 FILLER_34_234
*1351 FILLER_34_240
*1352 FILLER_34_248
*1353 FILLER_34_260
*1354 FILLER_34_269
*1355 FILLER_34_27
*1356 FILLER_34_276
*1357 FILLER_34_288
*1358 FILLER_34_29
*1359 FILLER_34_3
*1360 FILLER_34_300
*1361 FILLER_34_309
*1362 FILLER_34_321
*1363 FILLER_34_333
*1364 FILLER_34_345
*1365 FILLER_34_357
*1366 FILLER_34_363
*1367 FILLER_34_365
*1368 FILLER_34_377
*1369 FILLER_34_389
*1370 FILLER_34_401
*1371 FILLER_34_41
*1372 FILLER_34_53
*1373 FILLER_34_65
*1374 FILLER_34_77
*1375 FILLER_34_83
*1376 FILLER_34_85
*1377 FILLER_34_97
*1378 FILLER_35_105
*1379 FILLER_35_111
*1380 FILLER_35_113
*1381 FILLER_35_125
*1382 FILLER_35_137
*1383 FILLER_35_149
*1384 FILLER_35_15
*1385 FILLER_35_161
*1386 FILLER_35_167
*1387 FILLER_35_169
*1388 FILLER_35_181
*1389 FILLER_35_191
*1390 FILLER_35_202
*1391 FILLER_35_213
*1392 FILLER_35_220
*1393 FILLER_35_233
*1394 FILLER_35_241
*1395 FILLER_35_249
*1396 FILLER_35_255
*1397 FILLER_35_27
*1398 FILLER_35_276
*1399 FILLER_35_281
*1400 FILLER_35_288
*1401 FILLER_35_3
*1402 FILLER_35_300
*1403 FILLER_35_312
*1404 FILLER_35_324
*1405 FILLER_35_337
*1406 FILLER_35_349
*1407 FILLER_35_361
*1408 FILLER_35_373
*1409 FILLER_35_385
*1410 FILLER_35_39
*1411 FILLER_35_391
*1412 FILLER_35_393
*1413 FILLER_35_405
*1414 FILLER_35_51
*1415 FILLER_35_55
*1416 FILLER_35_57
*1417 FILLER_35_69
*1418 FILLER_35_81
*1419 FILLER_35_93
*1420 FILLER_36_109
*1421 FILLER_36_121
*1422 FILLER_36_133
*1423 FILLER_36_139
*1424 FILLER_36_141
*1425 FILLER_36_15
*1426 FILLER_36_153
*1427 FILLER_36_165
*1428 FILLER_36_173
*1429 FILLER_36_177
*1430 FILLER_36_184
*1431 FILLER_36_192
*1432 FILLER_36_202
*1433 FILLER_36_206
*1434 FILLER_36_212
*1435 FILLER_36_221
*1436 FILLER_36_230
*1437 FILLER_36_241
*1438 FILLER_36_248
*1439 FILLER_36_27
*1440 FILLER_36_276
*1441 FILLER_36_288
*1442 FILLER_36_29
*1443 FILLER_36_3
*1444 FILLER_36_300
*1445 FILLER_36_309
*1446 FILLER_36_321
*1447 FILLER_36_333
*1448 FILLER_36_345
*1449 FILLER_36_357
*1450 FILLER_36_363
*1451 FILLER_36_365
*1452 FILLER_36_377
*1453 FILLER_36_389
*1454 FILLER_36_401
*1455 FILLER_36_41
*1456 FILLER_36_53
*1457 FILLER_36_65
*1458 FILLER_36_77
*1459 FILLER_36_83
*1460 FILLER_36_85
*1461 FILLER_36_97
*1462 FILLER_37_105
*1463 FILLER_37_111
*1464 FILLER_37_113
*1465 FILLER_37_125
*1466 FILLER_37_137
*1467 FILLER_37_149
*1468 FILLER_37_15
*1469 FILLER_37_161
*1470 FILLER_37_167
*1471 FILLER_37_169
*1472 FILLER_37_181
*1473 FILLER_37_194
*1474 FILLER_37_206
*1475 FILLER_37_215
*1476 FILLER_37_223
*1477 FILLER_37_230
*1478 FILLER_37_236
*1479 FILLER_37_247
*1480 FILLER_37_260
*1481 FILLER_37_267
*1482 FILLER_37_27
*1483 FILLER_37_274
*1484 FILLER_37_284
*1485 FILLER_37_296
*1486 FILLER_37_3
*1487 FILLER_37_308
*1488 FILLER_37_320
*1489 FILLER_37_332
*1490 FILLER_37_337
*1491 FILLER_37_349
*1492 FILLER_37_361
*1493 FILLER_37_373
*1494 FILLER_37_385
*1495 FILLER_37_39
*1496 FILLER_37_391
*1497 FILLER_37_393
*1498 FILLER_37_405
*1499 FILLER_37_51
*1500 FILLER_37_55
*1501 FILLER_37_57
*1502 FILLER_37_69
*1503 FILLER_37_81
*1504 FILLER_37_93
*1505 FILLER_38_109
*1506 FILLER_38_121
*1507 FILLER_38_133
*1508 FILLER_38_139
*1509 FILLER_38_141
*1510 FILLER_38_15
*1511 FILLER_38_153
*1512 FILLER_38_165
*1513 FILLER_38_177
*1514 FILLER_38_181
*1515 FILLER_38_185
*1516 FILLER_38_192
*1517 FILLER_38_197
*1518 FILLER_38_219
*1519 FILLER_38_225
*1520 FILLER_38_246
*1521 FILLER_38_261
*1522 FILLER_38_268
*1523 FILLER_38_27
*1524 FILLER_38_275
*1525 FILLER_38_287
*1526 FILLER_38_29
*1527 FILLER_38_299
*1528 FILLER_38_3
*1529 FILLER_38_307
*1530 FILLER_38_309
*1531 FILLER_38_321
*1532 FILLER_38_333
*1533 FILLER_38_345
*1534 FILLER_38_357
*1535 FILLER_38_363
*1536 FILLER_38_365
*1537 FILLER_38_377
*1538 FILLER_38_389
*1539 FILLER_38_401
*1540 FILLER_38_41
*1541 FILLER_38_53
*1542 FILLER_38_65
*1543 FILLER_38_77
*1544 FILLER_38_83
*1545 FILLER_38_85
*1546 FILLER_38_97
*1547 FILLER_39_105
*1548 FILLER_39_111
*1549 FILLER_39_113
*1550 FILLER_39_125
*1551 FILLER_39_137
*1552 FILLER_39_149
*1553 FILLER_39_15
*1554 FILLER_39_161
*1555 FILLER_39_167
*1556 FILLER_39_169
*1557 FILLER_39_177
*1558 FILLER_39_199
*1559 FILLER_39_212
*1560 FILLER_39_216
*1561 FILLER_39_220
*1562 FILLER_39_225
*1563 FILLER_39_248
*1564 FILLER_39_27
*1565 FILLER_39_276
*1566 FILLER_39_281
*1567 FILLER_39_293
*1568 FILLER_39_3
*1569 FILLER_39_305
*1570 FILLER_39_317
*1571 FILLER_39_329
*1572 FILLER_39_335
*1573 FILLER_39_337
*1574 FILLER_39_349
*1575 FILLER_39_361
*1576 FILLER_39_373
*1577 FILLER_39_385
*1578 FILLER_39_39
*1579 FILLER_39_391
*1580 FILLER_39_393
*1581 FILLER_39_405
*1582 FILLER_39_51
*1583 FILLER_39_55
*1584 FILLER_39_57
*1585 FILLER_39_69
*1586 FILLER_39_81
*1587 FILLER_39_93
*1588 FILLER_3_105
*1589 FILLER_3_111
*1590 FILLER_3_113
*1591 FILLER_3_125
*1592 FILLER_3_137
*1593 FILLER_3_149
*1594 FILLER_3_15
*1595 FILLER_3_161
*1596 FILLER_3_167
*1597 FILLER_3_169
*1598 FILLER_3_181
*1599 FILLER_3_193
*1600 FILLER_3_205
*1601 FILLER_3_217
*1602 FILLER_3_223
*1603 FILLER_3_225
*1604 FILLER_3_237
*1605 FILLER_3_249
*1606 FILLER_3_261
*1607 FILLER_3_27
*1608 FILLER_3_273
*1609 FILLER_3_279
*1610 FILLER_3_281
*1611 FILLER_3_293
*1612 FILLER_3_3
*1613 FILLER_3_305
*1614 FILLER_3_317
*1615 FILLER_3_329
*1616 FILLER_3_335
*1617 FILLER_3_337
*1618 FILLER_3_349
*1619 FILLER_3_361